2
Lattice="12.025693879326065 0.0 0.0 6.012846939663032 10.414551541843355 0.0 0.0 0.0 16.24012235072364" Properties=species:S:1:pos:R:3:initial_charges:R:1:forces:R:3:magmoms:R:1 energy=-34663.781510561785 free_energy=-34663.781510561785 pbc="T T T"
H       4.00860872       4.62866793      -2.52042670       8.14689100       0.69448942       0.05905515       0.53533993       0.00000000
N        5.18398320       4.85600646       2.93821253       4.99690200       0.11953213      -0.02882078       0.69749169       0.00000000
2
Lattice="12.025693879326065 0.0 0.0 6.012846939663032 10.414551541843355 0.0 0.0 0.0 16.24012235072364" Properties=species:S:1:pos:R:3:initial_charges:R:1:forces:R:3:magmoms:R:1 energy=-34662.89388569647 free_energy=-34662.89388569647 pbc="T T T"
H       4.00860872       4.62866793      -2.52042670       8.21123300      -0.14498065       0.29821454       0.47052756       0.00000000
N        0.67900074      -1.16300245       4.59493225       4.97292000      -0.40408203      -0.50703723      -3.20458904       0.00000000